/*--------------------------------*- C++ -*----------------------------------*\
| =========                 |                                                 |
| \\      /  F ield         | OpenFOAM: The Open Source CFD Toolbox           |
|  \\    /   O peration     | Version:  v2006                                 |
|   \\  /    A nd           | Web:      www.OpenFOAM.com                      |
|    \\/     M anipulation  |                                                 |
\*---------------------------------------------------------------------------*/
FoamFile
{
    version     2.0;
    format      ascii;
    class       dictionary;
    location    "system";
    object      controlDict;
}
// * * * * * * * * * * * * * * * * * * * * * * * * * * * * * * * * * * * * * //

application             plicVofAdvectionFoam;

startFrom               startTime;

startTime               0.0;

stopAt                  endTime;

endTime                 3.0;

deltaT                  0.001;

writeControl            adjustableRunTime;

writeInterval           0.25;

purgeWrite              0;

writeFormat             binary;

writePrecision          15;

writeCompression        off;

timeFormat              general;

runTimeModifiable       yes;
adjustTimeStep          yes;

maxCo                   0.5;
maxAlphaCo              0.5;
maxDeltaT               0.2;

functions
{
    plicInterface
    {
        type            surfaces;
        libs            (SimPLIC sampling);
        writeControl    adjustableRunTime;
        writeInterval   0.25;

        surfaceFormat   vtp;
        fields          ( alpha.water U cellIds );

        interpolationScheme cell;

        surfaces
        (
            plicSurf
            {
                type            plicSurface;
                interpolate     false;
            }
        );
    }

    isoInterface
    {
        type                surfaces;
        libs                (sampling);
        writeControl        adjustableRunTime;
        writeInterval       0.25;

        surfaceFormat       vtp;
        fields              ( alpha.water U cellIds );

        interpolationScheme cellPoint;

        surfaces
        (
            isoSurf
            {
                type        isoSurfaceTopo;
                isoField    alpha.water;
                isoValue    0.5;
                interpolate false;
            }
        );
    }
}
// ************************************************************************* //
