/*--------------------------------*- C++ -*----------------------------------*\
| =========                 |                                                 |
| \\      /  F ield         | OpenFOAM: The Open Source CFD Toolbox           |
|  \\    /   O peration     | Version:  v2312                                 |
|   \\  /    A nd           | Website:  www.openfoam.com                      |
|    \\/     M anipulation  |                                                 |
\*---------------------------------------------------------------------------*/
FoamFile
{
    version     2.0;
    format      ascii;
    class       volVectorField;
    location    "0";
    object      U;
}
// * * * * * * * * * * * * * * * * * * * * * * * * * * * * * * * * * * * * * //

#include        "initialConditions"

dimensions      [0 1 -1 0 0];

internalField   uniform $initialU;

boundaryField
{
    "bodySide|bodyTop|side"
    {
        type    noSlip;
    }

    inlet
    {
        type    fixedValue;
        value   $internalField;
    }

    outlet
    {
        type    pressureInletOutletVelocity;
        value   $internalField;
    }

    "symmYMin|symmZMin"
    {
        type    symmetry;
    }
}

// ************************************************************************* //
