/*--------------------------------*- C++ -*----------------------------------*\
| =========                 |                                                 |
| \\      /  F ield         | OpenFOAM: The Open Source CFD Toolbox           |
|  \\    /   O peration     | Version:  v2312                                 |
|   \\  /    A nd           | Website:  www.openfoam.com                      |
|    \\/     M anipulation  |                                                 |
\*---------------------------------------------------------------------------*/
FoamFile
{
    version     2.0;
    format      ascii;
    class       dictionary;
    object      blockMeshDict;
}
// * * * * * * * * * * * * * * * * * * * * * * * * * * * * * * * * * * * * * //

xMin    0.0;
xMax    7.0;

yMin    0.0;
yMax    1.0;

zMin    0.0;
zMax    1.0;

length  #eval{ $xMax - $xMin };
width   #eval{ $yMax - $yMin };
height  #eval{ $zMax - $zMin };

ds      0.05;
nx      #calc "round($length / $ds)";
ny      #calc "round($width  / $ds)";
nz      #calc "round($height / $ds)";

scale   1.0;

vertices
(
    ($xMin $yMin $zMin)
    ($xMax $yMin $zMin)
    ($xMax $yMax $zMin)
    ($xMin $yMax $zMin)
    ($xMin $yMin $zMax)
    ($xMax $yMin $zMax)
    ($xMax $yMax $zMax)
    ($xMin $yMax $zMax)
);

blocks
(
    hex (0 1 2 3 4 5 6 7) ($nx $ny $nz) simpleGrading (1 1 1)
);

edges
(
);

boundary
(
    walls
    {
        type    wall;
        faces
        (
            (4 5 6 7)
            (0 3 2 1)
            (0 1 5 4)
            (2 3 7 6)
            (0 4 7 3)
            (1 2 6 5)
        );
    }
);

// ************************************************************************* //
