/*--------------------------------*- C++ -*----------------------------------*\
| =========                 |                                                 |
| \\      /  F ield         | OpenFOAM: The Open Source CFD Toolbox           |
|  \\    /   O peration     | Version:  v2312                                 |
|   \\  /    A nd           | Website:  www.openfoam.com                      |
|    \\/     M anipulation  |                                                 |
\*---------------------------------------------------------------------------*/
FoamFile
{
    version     2.0;
    format      ascii;
    class       dictionary;
    location    "system";
    object      controlDict;
}
// * * * * * * * * * * * * * * * * * * * * * * * * * * * * * * * * * * * * * //

application     interPlicFoam;

startFrom       latestTime;
startTime       0;
stopAt          endTime;
endTime         0.01;
deltaT          1e-6;

writeControl    adjustable;
writeInterval   0.005;
purgeWrite      0;
writeFormat     binary;
writePrecision  9;
writeCompression    off;

timeFormat      general;
timePrecision   6;

runTimeModifiable   yes;

adjustTimeStep  yes;
maxCo           1.75;
maxAlphaCo      0.5;
maxDeltaT       1;


functions
{
    plicInterface
    {
        type            surfaces;
        libs            (SimPLIC sampling);
        writeControl    adjustableRunTime;
        writeInterval   0.005;

        surfaceFormat   vtp;
        fields          ( alpha.oil U p p_rgh );

        interpolationScheme cell;

        surfaces
        (
            plicSurf
            {
                type            plicSurface;
                interpolate     false;
            }
        );
    }

    isoInterface
    {
        type                surfaces;
        libs                (sampling);
        writeControl        adjustableRunTime;
        writeInterval       0.00001;

        surfaceFormat       vtp;
        fields              ( alpha.oil U p p_rgh );

        interpolationScheme cellPoint;

        surfaces
        (
            isoSurf
            {
                type        isoSurfaceTopo;
                isoField    alpha.oil;
                isoValue    0.5;
                interpolate true;
            }
        );
    }

    sideWalls
    {
        type                surfaces;
        libs                (sampling);
        writeControl        adjustableRunTime;
        writeInterval       0.00001;

        surfaceFormat       vtp;
        fields              ( alpha.oil U p p_rgh );

        interpolationScheme cellPoint;

        surfaces
        (
            sideWalls
            {
                type        patch;
                patches     (walls);
                interpolate true;
            }
        );
    }
}


// ************************************************************************* //
